26
11
C                  1.83960800    1.20980700   -0.44954500
H                  2.82204700    1.38338800    0.03101100
H                  1.64300900    2.05703700   -1.11616100
C                  1.83213500   -1.23399200   -0.40364600
H                  2.81370500   -1.39406500    0.08338500
H                  1.63157100   -2.10391800   -1.03886600
C                  1.08245500    0.02309800    1.46209200
H                  0.39760500    0.04119600    2.31662600
H                  2.11167400    0.02754600    1.83764300
C                 -0.54912400   -1.21886400    0.26981200
H                 -0.71696700   -2.07454900   -0.39576300
H                 -1.14777400   -1.38144900    1.18098300
C                 -0.53957900    1.23128300    0.22568300
H                 -0.70805600    2.06893700   -0.46320700
H                 -1.11985700    1.43118600    1.14661400
N                  0.86229300    1.21606800    0.63806900
N                  0.85354200   -1.19457600    0.68157400
N                  1.80288800   -0.02698700   -1.24265000
N                 -0.96810700   -0.00241700   -0.44294800
H                  2.57864100   -0.04145200   -1.90192500
C                 -2.35186400   -0.00584000   -0.85176500
H                 -2.49630600    0.86723000   -1.50955100
H                 -2.51651000   -0.90183000   -1.46304900
N                 -3.32597400   -0.05435200    0.25841300
H                 -3.54459800    0.88120100    0.59031300
H                 -4.20246500   -0.45755500   -0.06103300
