12
13
C                 -1.06562900    0.07244600   -0.61515800
H                 -0.66550400   -0.73552300   -1.24732800
H                 -1.68673300    0.71770400   -1.25475000
O                 -1.82280400   -0.58478400    0.37941700
H                 -2.09664800    0.10513100    1.00161900
N                 -0.04470800    0.91220700   -0.01267100
H                  0.29398100    1.59707900   -0.68315200
C                  1.06699900    0.20415200    0.58866100
H                  1.71926900    0.93997800    1.06553400
H                  0.65746800   -0.45885400    1.35906300
O                  1.89795500   -0.51984700   -0.31726900
H                  1.48168700   -1.37350600   -0.49049200
