8
2
N                  1.23215700   -0.13815800   -0.00002200
H                  1.29228900   -0.74403100    0.81524000
H                  1.29223800   -0.74395400   -0.81534400
C                 -0.03133100    0.53655500    0.00002100
H                 -0.08039800    1.18061400    0.89046800
H                 -0.08045600    1.18075700   -0.89032600
O                 -1.11446100   -0.40245500    0.00003600
H                 -1.94510300    0.09402500   -0.00029300
