9
4
C                  0.00000300    0.54521800    0.00000500
H                  0.03151300    1.20578800    0.88537800
H                 -0.03153900    1.20576700   -0.88538000
N                  1.17250600   -0.31727900    0.07623500
H                  1.23932100   -0.86078800   -0.78130900
H                  2.01893900    0.24028100    0.15584000
N                 -1.17249300   -0.31729200   -0.07622500
H                 -1.23943300   -0.86063100    0.78141700
H                 -2.01890700    0.24026800   -0.15604400
