9
2H-azirine
C -0.116172000 0.029022000 0.000004000
C 1.198785000 -0.559809000 -0.000001000
H 1.641345000 -0.940665000 0.923161000
H 1.641286000 -0.940703000 -0.923175000
N 0.788279000 0.912757000 -0.000004000
C -1.572695000 -0.127165000 -0.000018000
H -1.889916000 -0.700074000 0.878993000
H -2.080445000 0.842117000 -0.001212000
H -1.889733000 -0.702261000 -0.877650000