12
B1s
C 3.181982000 0.173878000 0.000020000
C 2.969201000 1.553257000 0.000061000
H 3.804054000 2.248889000 -0.000045000
H 1.963328000 1.969639000 -0.000478000
N 2.096420000 -0.609076000 -0.000154000
C 4.550255000 -0.418424000 0.000086000
H 4.691704000 -1.052703000 0.881853000
H 4.692239000 -1.051508000 -0.882470000
H 5.324344000 0.350311000 0.000801000
Cu 0.292785000 -0.298453000 -0.000005000
I -2.079336000 0.079300000 0.000011000
H 2.354772000 -1.601133000 -0.000029000