13
Di-CP1
C -0.083715000 2.769290000 0.040779000
C 1.081918000 3.512746000 -0.164683000
H 1.038132000 4.570008000 -0.419103000
H 2.051344000 3.017784000 -0.200148000
N -0.008824000 1.444005000 0.038151000
C -1.416483000 3.450221000 0.154044000
H -1.979946000 3.348370000 -0.781481000
H -2.014464000 2.988701000 0.947236000
H -1.307224000 4.516199000 0.373974000
Cu -1.414603000 0.289460000 -0.144799000
I -3.392790000 -1.116305000 -0.062860000
Cu 1.451859000 0.355099000 0.170133000
I 3.480525000 -0.977159000 0.079152000