24
Et3N-CuI
N -2.040261000 -0.000240000 -0.000158000
C -2.547540000 1.099863000 -0.873237000
C -2.547471000 0.205075000 1.389259000
C -2.547069000 -1.306267000 -0.517134000
C -1.806809000 1.212880000 -2.186784000
C -1.810538000 1.289439000 2.142860000
C -1.809577000 -2.501142000 0.044254000
H -2.441914000 2.034714000 -0.313439000
H -3.626547000 0.940494000 -1.034627000
H -2.437385000 -0.746359000 1.919516000
H -3.627420000 0.420166000 1.332555000
H -2.438011000 -1.289208000 -1.606315000
H -3.626867000 -1.365139000 -0.301920000
H -2.221549000 2.036568000 -2.777506000
H -1.878865000 0.305037000 -2.795750000
H -0.741447000 1.423525000 -2.019364000
H -2.223532000 1.386355000 3.152525000
H -1.888660000 2.270718000 1.662076000
H -0.743708000 1.044370000 2.238978000
H -2.221925000 -3.423834000 -0.377681000
H -1.888203000 -2.576511000 1.134342000
H -0.742679000 -2.461112000 -0.215634000
Cu -0.044641000 0.000512000 -0.000485000
I 2.391305000 -0.000227000 0.000417000