22
Et3N
N -0.000523000 0.000561000 -0.068290000
C 0.077113000 -1.387144000 0.395509000
C -1.241227000 0.626012000 0.396543000
C 1.161073000 0.761658000 0.398873000
C 1.078368000 -2.224801000 -0.375621000
C -2.467155000 0.180681000 -0.376522000
C 1.392087000 2.043358000 -0.377167000
H -0.917383000 -1.834403000 0.280529000
H 0.302983000 -1.419039000 1.483411000
H -1.130877000 1.711281000 0.285228000
H -1.382210000 0.442722000 1.483816000
H 2.045336000 0.122142000 0.292164000
H 1.069499000 0.978175000 1.485216000
H 1.072622000 -3.258344000 -0.010570000
H 2.104591000 -1.852126000 -0.275739000
H 0.830687000 -2.238626000 -1.443366000
H -3.359650000 0.699848000 -0.008481000
H -2.656519000 -0.895050000 -0.282236000
H -2.355929000 0.407702000 -1.443227000
H 2.286682000 2.557495000 -0.007207000
H 0.555143000 2.746005000 -0.288644000
H 1.537142000 1.829702000 -1.442552000