9
P1-1s
C 2.572436000 -1.230237000 0.020743000
H 2.645172000 -2.303704000 0.034361000
C 2.838553000 -0.020807000 0.010230000
C 3.370142000 1.332042000 0.002666000
H 3.040726000 1.896865000 0.880490000
H 4.465465000 1.288933000 0.013923000
H 3.058244000 1.880652000 -0.891694000
Cu 0.798879000 -0.345315000 -0.015030000
I -1.590666000 0.151093000 -0.055400000
