17
P1-8s
Cu 0.055841000 0.168158000 0.939261000
C 1.802230000 0.381898000 1.634634000
C 2.594660000 1.488379000 1.944193000
N 2.638575000 -0.649478000 1.974056000
C 2.287495000 2.935362000 1.813417000
N 3.797663000 1.058309000 2.426331000
N 3.834612000 -0.265725000 2.448729000
C 2.361472000 -2.066448000 1.871831000
H 1.279103000 3.073359000 1.410393000
H 2.336710000 3.453307000 2.780135000
H 2.990573000 3.443971000 1.140934000
H 1.493160000 -2.322422000 2.485478000
H 2.152303000 -2.332013000 0.831747000
H 3.236884000 -2.615140000 2.223936000
I -2.212571000 -0.199272000 0.036378000
Cu 5.291296000 2.064633000 3.016137000
I 7.208070000 3.366387000 3.773142000