17
P1-TS4s
Cu -2.052592000 0.407374000 0.368013000
C 0.396100000 1.463741000 0.064942000
C -0.568449000 1.672841000 1.080172000
Cu 1.943011000 0.381088000 0.017443000
C -0.459408000 1.346614000 2.535956000
H -1.437491000 1.371842000 3.028269000
H -0.020650000 0.355156000 2.689201000
H 0.185668000 2.072725000 3.048994000
N -1.540505000 2.566028000 0.617413000
N -1.232332000 2.922456000 -0.609614000
N -0.076646000 2.271831000 -0.924730000
C 0.461345000 2.430414000 -2.259406000
H 1.537232000 2.613639000 -2.204124000
H 0.281117000 1.526231000 -2.849522000
H -0.036402000 3.279117000 -2.732528000
I 3.971676000 -1.018197000 -0.009510000
I -3.525690000 -1.432520000 -0.259735000
