17
P1-TS2s
Cu -1.036487000 0.829725000 0.000172000
Cu 1.248175000 0.030852000 0.000443000
C 0.594930000 1.817649000 0.000424000
C 1.107787000 2.977544000 0.000255000
C 1.004900000 4.439532000 0.001032000
H -0.045483000 4.749549000 0.000314000
H 1.491828000 4.872357000 0.882934000
H 1.493527000 4.873563000 -0.879312000
N 3.074353000 2.823339000 -0.000967000
N 3.547796000 1.729462000 -0.000834000
N 3.182762000 0.503063000 0.001570000
C 4.272527000 -0.473762000 -0.002703000
H 4.881783000 -0.393680000 -0.910818000
H 4.916856000 -0.361986000 0.877200000
H 3.804923000 -1.460787000 0.023498000
I 0.884353000 -2.478251000 0.000360000
I -3.397516000 0.116127000 -0.000437000
