26
P1a-2t
Cu -3.466215000 -0.124575000 0.122872000
C 0.624909000 -0.156652000 0.494552000
C -0.569019000 0.415807000 0.054662000
Cu 2.457550000 0.464135000 0.249259000
C -0.783717000 1.662246000 -0.723671000
H 0.138963000 2.251666000 -0.759314000
H -1.083284000 1.453988000 -1.759343000
H -1.569341000 2.287842000 -0.280914000
N -1.614007000 -0.373752000 0.438432000
N -1.167884000 -1.425374000 1.108772000
N 0.168461000 -1.280087000 1.126195000
C 0.954250000 -2.270550000 1.830659000
H 0.312619000 -3.124123000 2.056669000
H 1.792992000 -2.580970000 1.200455000
H 1.346367000 -1.850207000 2.762406000
C 4.525718000 2.743595000 0.246578000
N 3.493445000 1.946351000 0.314910000
C 4.405287000 4.091607000 0.610327000
C 5.855444000 2.203631000 -0.234074000
H 6.143514000 1.320591000 0.345430000
H 5.782118000 1.887904000 -1.280616000
H 6.645350000 2.956985000 -0.151658000
H 3.449939000 4.485580000 0.949127000
H 5.257611000 4.766372000 0.566036000
I 4.039240000 -1.542658000 -0.621799000
I -5.835522000 0.261320000 -0.303341000
