40
P1b-1s
Cu -2.439200000 -0.930367000 0.214016000
C -0.608384000 -0.706813000 0.674607000
C 0.563494000 -0.760262000 -0.083560000
C 0.740854000 -0.963316000 -1.543702000
H -0.230608000 -1.040604000 -2.042668000
H 1.302360000 -0.141676000 -2.008765000
H 1.295822000 -1.885589000 -1.756281000
N 1.638240000 -0.615434000 0.745712000
N 1.232889000 -0.471610000 1.997719000
N -0.105714000 -0.526968000 1.939839000
C -0.853338000 -0.384119000 3.172717000
H -1.572271000 -1.201820000 3.264626000
H -0.149610000 -0.412073000 4.006036000
H -1.390700000 0.569888000 3.182626000
H -1.548105000 1.300355000 0.133188000
I -4.798481000 -1.119726000 -0.456216000
Cu 3.468913000 -0.469167000 0.267781000
I 5.777725000 -0.202060000 -0.447666000
N -1.659388000 2.273119000 -0.225691000
C -0.882712000 3.190063000 0.684181000
C -3.137277000 2.570626000 -0.197359000
C -1.094399000 2.260461000 -1.624202000
C 0.594048000 2.884890000 0.734762000
C -3.729099000 2.454752000 1.185599000
C -1.892342000 1.410451000 -2.583185000
H -1.330202000 3.080767000 1.674626000
H -1.086475000 4.207295000 0.331484000
H -3.602177000 1.832430000 -0.857428000
H -3.264213000 3.565971000 -0.637329000
H -0.076279000 1.873730000 -1.522558000
H -1.030385000 3.306223000 -1.945321000
H 1.045725000 3.494255000 1.522920000
H 1.114245000 3.120363000 -0.198291000
H 0.784482000 1.835648000 0.986885000
H -4.819265000 2.474547000 1.098538000
H -3.432741000 3.265343000 1.857265000
H -3.465777000 1.491626000 1.643923000
H -1.294262000 1.243001000 -3.483868000
H -2.831930000 1.879939000 -2.887993000
H -2.126540000 0.427347000 -2.150204000
