16
P1b-2s
C 3.674296000 0.755183000 -0.006602000
C 2.359554000 1.163211000 -0.001736000
C 1.761966000 2.518374000 0.000166000
H 2.532366000 3.284501000 -0.118491000
H 1.038968000 2.631166000 -0.815630000
H 1.228560000 2.715753000 0.937385000
N 1.603107000 0.025946000 0.006182000
N 2.375048000 -1.049215000 0.007054000
N 3.630126000 -0.597531000 -0.000934000
C 4.735231000 -1.536697000 -0.006263000
H 5.353070000 -1.386280000 0.881888000
H 4.315093000 -2.542380000 0.000186000
H 5.339414000 -1.392349000 -0.904810000
H 4.605391000 1.304021000 -0.016101000
Cu -0.293273000 -0.104581000 0.006543000
I -2.723626000 -0.144083000 -0.002900000