40
P1b-TS1s
Cu -2.258291000 -0.728901000 0.203615000
C -0.622049000 0.347474000 0.470315000
C 0.555686000 0.068896000 -0.242151000
C 0.751745000 -0.237262000 -1.677414000
H -0.204352000 -0.322589000 -2.200996000
H 1.348314000 0.540855000 -2.170267000
H 1.289540000 -1.183976000 -1.805336000
N 1.603868000 0.119655000 0.620420000
N 1.176654000 0.428743000 1.841129000
N -0.134553000 0.567352000 1.749396000
C -0.888854000 0.905736000 2.940976000
H -1.630572000 0.128959000 3.143811000
H -0.189165000 0.978792000 3.773652000
H -1.393253000 1.866502000 2.802300000
H -1.443031000 1.244493000 0.037354000
I -4.264731000 -2.068255000 -0.116521000
Cu 3.447177000 -0.198401000 0.267274000
I 5.777258000 -0.620311000 -0.265081000
N -2.128970000 2.453084000 -0.518932000
C -1.599852000 3.658754000 0.156205000
C -3.586540000 2.303389000 -0.307466000
C -1.775655000 2.449427000 -1.958894000
C -0.108427000 3.862682000 -0.011268000
C -3.991993000 2.208616000 1.147384000
C -2.418036000 1.327686000 -2.748942000
H -1.838051000 3.562463000 1.220685000
H -2.152868000 4.539263000 -0.213481000
H -3.891030000 1.379274000 -0.813578000
H -4.108444000 3.134456000 -0.811483000
H -0.683593000 2.358181000 -2.014441000
H -2.035883000 3.429038000 -2.393907000
H 0.217496000 4.674261000 0.646529000
H 0.167990000 4.141045000 -1.032881000
H 0.464286000 2.968677000 0.264551000
H -5.057016000 1.962376000 1.205993000
H -3.838202000 3.137775000 1.705214000
H -3.451082000 1.400780000 1.659049000
H -1.909412000 1.224468000 -3.712713000
H -3.479111000 1.504013000 -2.950259000
H -2.339300000 0.362417000 -2.227242000