31
P1mono-TS1s
N -1.588958000 1.266651000 -3.250532000
C -2.281758000 -0.023042000 -3.012572000
C -2.334515000 2.422100000 -2.688426000
C -0.182124000 1.235808000 -2.769900000
C -1.561805000 -1.213359000 -3.609770000
C -3.782877000 2.484855000 -3.122726000
C 0.552023000 2.549325000 -2.942870000
H -3.272473000 0.067651000 -3.468805000
H -2.428900000 -0.147844000 -1.928187000
H -1.816066000 3.321676000 -3.045715000
H -2.241995000 2.403479000 -1.591516000
H 0.325098000 0.456175000 -3.347559000
H -0.181590000 0.917187000 -1.715555000
H -2.220103000 -2.086769000 -3.570269000
H -0.645430000 -1.471317000 -3.069813000
H -1.305528000 -1.038053000 -4.661279000
H -4.195806000 3.457982000 -2.838214000
H -4.402784000 1.714403000 -2.653508000
H -3.877573000 2.392667000 -4.211885000
H 1.619220000 2.387434000 -2.761283000
H 0.212723000 3.320461000 -2.244008000
H 0.444693000 2.941996000 -3.962540000
C -1.484480000 1.887594000 -5.859485000
H -1.546434000 1.492142000 -4.503716000
C -1.358757000 2.157446000 -7.076568000
C -1.199106000 2.211286000 -8.525862000
H -0.306898000 2.778076000 -8.814679000
H -1.096887000 1.197565000 -8.931318000
H -2.061541000 2.680683000 -9.012313000
Cu -1.590526000 3.852935000 -5.816453000
I -1.781445000 6.159559000 -4.995994000