15
P1mono-8s
Cu -0.124009000 0.019003000 -0.002586000
C 1.782815000 0.031836000 -0.001143000
C 2.721531000 1.072554000 0.001004000
N 2.599902000 -1.067686000 -0.001401000
C 2.485883000 2.554738000 0.000745000
N 3.988639000 0.561248000 0.002060000
N 3.917201000 -0.750760000 0.000865000
C 2.215191000 -2.471094000 0.001452000
H 1.412451000 2.769065000 0.011717000
H 2.934961000 3.036955000 0.878950000
H 2.916210000 3.034272000 -0.888416000
H 1.648762000 -2.709509000 0.906573000
H 1.599674000 -2.696943000 -0.873932000
H 3.126459000 -3.071752000 -0.027337000
I -2.619150000 0.014321000 0.000838000