31
P1mono-2s
N 2.708140000 -0.708370000 0.017878000
C 4.034559000 -0.617742000 -0.607109000
C 1.849913000 -1.662713000 -0.699745000
C 2.834259000 -1.110357000 1.427405000
C 4.791924000 0.634710000 -0.213022000
C 1.389087000 -1.176630000 -2.059943000
C 1.599224000 -0.823006000 2.259318000
H 3.893834000 -0.617833000 -1.693661000
H 4.627915000 -1.524168000 -0.370812000
H 0.965157000 -1.843698000 -0.075623000
H 2.366243000 -2.640110000 -0.792302000
H 3.683517000 -0.564314000 1.854673000
H 3.097578000 -2.186058000 1.485776000
H 5.765679000 0.663073000 -0.714503000
H 4.980990000 0.691634000 0.865154000
H 4.236904000 1.534964000 -0.503271000
H 0.693172000 -1.901289000 -2.497049000
H 2.213543000 -1.045310000 -2.769950000
H 0.858431000 -0.218117000 -1.981277000
H 1.754717000 -1.161903000 3.289675000
H 0.704742000 -1.334812000 1.883233000
H 1.380826000 0.251318000 2.291710000
C 0.939813000 1.765485000 -0.043497000
H 1.732900000 0.993442000 -0.038484000
C 0.138310000 2.709884000 -0.040952000
C -0.587742000 3.971345000 -0.046974000
H -1.227071000 4.070207000 0.836155000
H 0.124097000 4.804657000 -0.048649000
H -1.222449000 4.062406000 -0.934468000
Cu -0.856940000 0.882554000 -0.011310000
I -2.578727000 -0.845574000 0.004974000
