27
P2-13t
Cu -1.237334000 -0.936576000 0.004517000
C 0.648704000 -1.499705000 0.115236000
C 1.220948000 -2.344701000 -0.870851000
Cu 0.715769000 0.480884000 -0.118713000
C 1.091322000 -2.248265000 -2.342579000
H 0.891788000 -3.228764000 -2.787259000
H 0.288580000 -1.561765000 -2.629666000
H 2.024638000 -1.878383000 -2.785731000
N 1.983216000 -3.289130000 -0.280107000
N 1.943657000 -3.102092000 1.030878000
N 1.159388000 -2.057383000 1.275597000
C 0.970554000 -1.601873000 2.638270000
H 1.415268000 -0.609092000 2.764170000
H -0.096885000 -1.556002000 2.871560000
H 1.464400000 -2.311320000 3.303189000
C -0.994474000 2.815803000 0.338340000
N -0.026318000 2.253537000 -0.357100000
C -1.450376000 2.180452000 1.514560000
C -1.619676000 4.105494000 -0.088246000
H -1.195557000 4.479158000 -1.023737000
H -2.699307000 3.972461000 -0.224657000
H -1.488890000 4.871418000 0.684163000
H -0.965806000 1.276972000 1.882623000
H -2.274118000 2.589513000 2.092600000
I 3.258141000 1.009275000 -0.165137000
I -3.581094000 -0.267718000 -0.196605000
H 0.256147000 2.790564000 -1.176513000