27
P2-16t
N 4.121284000 7.715303000 2.984378000
N 3.356409000 6.606892000 2.892938000
N 5.971427000 8.306774000 4.453310000
C 4.569042000 7.961006000 4.343660000
C 7.038427000 7.473094000 4.648902000
C 4.092788000 6.733730000 4.986961000
N 3.370857000 6.036885000 4.112152000
C 6.963228000 6.117361000 4.461939000
H 6.070968000 5.618290000 4.097275000
H 7.839367000 5.505196000 4.651440000
H 6.188600000 9.297293000 4.422935000
C 4.243787000 6.358948000 6.410043000
H 4.191608000 5.272271000 6.538453000
H 5.203119000 6.706236000 6.810060000
H 3.452856000 6.804681000 7.030372000
C 4.035787000 8.718438000 1.956316000
H 3.327812000 9.510203000 2.244408000
H 5.020541000 9.165229000 1.789657000
H 3.696188000 8.243541000 1.034312000
C 8.303484000 8.150447000 5.063362000
H 9.138300000 7.447233000 5.078168000
H 8.558082000 8.968243000 4.378576000
H 8.201228000 8.586578000 6.064166000
Cu 3.562415000 9.423582000 5.248003000
I 1.925585000 11.023124000 6.136377000
Cu 2.386308000 4.430744000 4.370560000
I 1.248521000 2.320491000 4.749915000