9
P2-2s
C 0.557092000 3.083806000 0.000000000
C -0.874221000 3.271376000 0.000000000
N -0.086166000 1.968434000 0.000000000
C 1.910266000 3.608628000 0.000000000
H -1.391660000 3.516143000 0.926942000
H 2.054198000 4.253038000 0.875955000
H 2.652987000 2.807323000 0.000000000
Cu -0.078864000 0.465945000 1.236968000
I -0.078864000 -1.122004000 3.075170000
