13
P2-3s
C -0.362585000 2.849972000 0.000053000
C -1.811032000 2.600599000 0.000420000
H -2.356934000 2.747906000 0.934645000
H -2.357476000 2.748119000 -0.933455000
N 0.032886000 1.629048000 -0.000480000
C 0.432509000 4.086370000 0.000274000
H 0.182103000 4.692381000 0.879438000
H 1.504366000 3.869723000 0.000720000
H 0.182868000 4.692161000 -0.879269000
Cu -1.539309000 0.605850000 -0.000184000
I -3.113694000 -1.270847000 0.000066000
Cu 1.423789000 0.432736000 -0.000229000
I 3.423347000 -0.946026000 0.000100000