13
P2-4s
C -0.075732000 2.758748000 0.008720000
C 1.081474000 3.503872000 -0.079634000
H 1.061864000 4.590271000 -0.140581000
H 2.054058000 3.014708000 -0.117493000
N 0.004522000 1.408868000 0.002692000
C -1.418507000 3.425578000 0.076338000
H -2.026492000 3.147616000 -0.792983000
H -1.960574000 3.093383000 0.969545000
H -1.341303000 4.516017000 0.107080000
Cu -1.482826000 0.347568000 -0.019504000
I -3.455660000 -1.062142000 -0.000903000
Cu 1.523781000 0.400318000 0.015446000
I 3.521125000 -0.976386000 0.001671000
