20
P2-5t
C 10.930960000 7.784824000 1.690435000
N 11.764599000 7.163545000 0.878880000
C 9.665331000 8.361091000 1.107761000
Cu 11.772009000 6.844040000 -0.935017000
I 11.445867000 6.738460000 -3.349138000
C 13.786765000 4.715054000 -0.583533000
H 12.971408000 4.023998000 -0.698900000
C 14.881566000 5.266266000 -0.649097000
C 16.154271000 5.942251000 -0.744172000
H 16.682256000 5.922832000 0.215874000
H 16.780080000 5.444097000 -1.493533000
H 16.028064000 6.987190000 -1.049116000
Cu 13.387450000 6.200562000 0.974167000
C 11.205939000 7.912687000 3.054044000
H 9.903465000 9.136700000 0.370867000
H 9.091372000 7.585092000 0.589183000
I 14.861923000 6.369331000 3.025865000
H 9.033417000 8.802570000 1.883014000
H 12.124784000 7.501565000 3.468262000
H 10.511630000 8.424395000 3.715876000