42
P2-9t
C -0.539335000 0.792785000 1.053675000
N -0.020310000 -0.142353000 0.210089000
C -1.926051000 0.578880000 1.574665000
Cu 0.476920000 0.660012000 -1.687688000
I -1.579161000 0.983050000 -3.014895000
C 2.382132000 0.728283000 -1.498633000
H -0.621302000 -0.996673000 0.073959000
C 3.613572000 0.778574000 -1.379343000
C 5.055783000 0.852148000 -1.280130000
H 5.528485000 -0.080230000 -1.610648000
H 5.449197000 1.665719000 -1.900604000
H 5.371023000 1.039737000 -0.246834000
Cu 1.930989000 -0.448770000 0.112389000
C 0.200494000 1.906178000 1.377789000
H -2.650419000 0.591191000 0.749648000
H -2.015579000 -0.397264000 2.066839000
I 3.048686000 -1.867056000 1.821567000
H -2.209687000 1.354671000 2.290137000
H 1.199684000 2.049962000 0.965043000
H -0.188448000 2.666595000 2.048309000
N -1.379189000 -2.678508000 -0.167043000
C -0.653307000 -3.539063000 0.780738000
C -1.089922000 -3.056308000 -1.559964000
C -2.824593000 -2.710265000 0.103106000
C -0.748571000 -3.091246000 2.224341000
C 0.367187000 -2.922624000 -1.956939000
C -3.651530000 -1.841280000 -0.822306000
H 0.402622000 -3.533448000 0.488250000
H -1.007888000 -4.583809000 0.677157000
H -1.686816000 -2.399777000 -2.202302000
H -1.438177000 -4.091646000 -1.747066000
H -2.967648000 -2.374604000 1.136579000
H -3.184420000 -3.758244000 0.064153000
H -0.090641000 -3.712072000 2.841698000
H -1.759128000 -3.173369000 2.639160000
H -0.407318000 -2.053251000 2.337562000
H 0.464984000 -3.048913000 -3.040472000
H 1.021597000 -3.659686000 -1.479380000
H 0.759933000 -1.921402000 -1.716190000
H -4.653033000 -1.700638000 -0.402076000
H -3.773366000 -2.277501000 -1.819337000
H -3.195398000 -0.850701000 -0.951868000