27
P2-TS7t
Cu -8.831667000 -7.250432000 -0.720684000
C -10.512039000 -5.242977000 -0.855387000
C -10.812167000 -6.616060000 -0.695491000
Cu -10.277283000 -3.907794000 0.469859000
C -11.426318000 -7.307572000 0.476200000
H -11.319594000 -8.393356000 0.394492000
H -10.978292000 -6.984701000 1.422201000
H -12.499099000 -7.080634000 0.528201000
N -10.705246000 -7.237952000 -1.938263000
N -10.408983000 -6.323029000 -2.843234000
N -10.325396000 -5.136043000 -2.196779000
C -9.984731000 -3.944554000 -2.948326000
H -10.731583000 -3.169011000 -2.758781000
H -8.996816000 -3.582939000 -2.649028000
H -9.977347000 -4.204045000 -4.007390000
C -8.596300000 -3.331484000 2.782589000
N -9.471123000 -2.892313000 1.894220000
C -8.188132000 -4.680930000 2.725168000
C -8.046231000 -2.438327000 3.848315000
H -8.394585000 -2.768516000 4.833840000
H -6.952506000 -2.485511000 3.866293000
H -8.349322000 -1.397516000 3.708309000
H -8.581749000 -5.357197000 1.964807000
H -7.468786000 -5.082777000 3.432843000
I -12.677619000 -2.844209000 0.307415000
I -6.544144000 -7.523914000 0.055438000
H -9.719055000 -1.911171000 2.021226000