13
P2-TS2s
C -0.018658000 2.711251000 -0.061451000
C -1.345386000 3.154551000 0.126560000
H -1.596330000 3.897973000 0.884287000
H -2.168579000 2.684244000 -0.409570000
N 0.030513000 1.403619000 -0.205433000
C 1.171856000 3.589869000 0.076299000
H 1.165217000 4.104127000 1.044631000
H 2.095971000 3.007745000 -0.005881000
H 1.169431000 4.364953000 -0.698575000
Cu 1.492629000 0.326929000 0.039885000
I 3.526124000 -0.996667000 0.008177000
Cu -1.519233000 0.407095000 -0.155519000
I -3.506401000 -1.001542000 0.050844000