13
P2-TS2t
C 0.172542000 3.065975000 -0.081367000
C 0.122909000 3.006723000 1.315771000
H 0.983627000 3.263802000 1.947920000
H -0.778991000 2.695330000 1.837187000
N 0.034626000 1.674902000 -0.018542000
C 1.094828000 3.780940000 -0.986850000
H 2.143482000 3.482658000 -0.817791000
H 0.859026000 3.561052000 -2.033565000
H 1.025016000 4.861504000 -0.830133000
Cu 1.305954000 0.356786000 0.120093000
I 3.148294000 -1.222108000 -0.021794000
Cu -1.371890000 0.489911000 -0.072124000
I -3.354031000 -0.914962000 -0.031984000