27
P2-TS5t
Cu 1.645140000 0.330319000 -0.139921000
C 0.260004000 1.550210000 0.412823000
C 0.225539000 2.773039000 0.739601000
Cu -0.781944000 -0.096825000 0.300269000
C -0.502241000 4.004324000 1.043390000
H -0.230611000 4.804910000 0.346226000
H -0.273587000 4.362172000 2.053550000
H -1.580150000 3.823854000 0.963533000
N 2.059715000 3.420834000 0.990218000
N 2.954884000 2.679562000 0.738107000
N 3.154543000 1.492762000 0.316513000
C 4.548339000 1.051077000 0.230654000
H 5.137418000 1.717480000 -0.408032000
H 4.540663000 0.054792000 -0.215737000
H 5.009026000 0.990292000 1.222705000
C -1.257759000 -2.591246000 1.808941000
N -1.673274000 -1.716444000 0.912979000
C -0.001067000 -2.395432000 2.418722000
C -2.082645000 -3.782003000 2.185114000
H -2.304760000 -3.775101000 3.257815000
H -1.529122000 -4.705423000 1.980134000
H -3.026819000 -3.817650000 1.635734000
H 0.607310000 -1.527528000 2.168109000
H 0.384064000 -3.099502000 3.150958000
I -2.924655000 1.070087000 -0.698947000
I 1.343844000 -1.967629000 -1.055466000
H -2.599479000 -1.919895000 0.536921000