9

C -3.11487200 -2.15203700 -0.46481000
C -3.27939700 -0.65671800 -0.52884400
H -3.64365600 -2.65957400 0.33649500
Cl -4.38256900 -2.86795000 -2.00978600
H -4.33380300 -0.36139400 -0.51014200
H -2.78069900 -0.21712600 0.35049800
Pd -2.19285200 -3.69917000 -2.27809800
H -2.80964000 -0.23565600 -1.42284800
H -2.06425900 -2.48183300 -0.51891300