9

C -2.76293400 -2.15689500 -0.32287100
C -3.17654600 -0.72923800 -0.60323700
H -3.37542900 -2.64646500 0.44261800
F -4.66041400 -3.02915200 -2.52957200
H -4.22400000 -0.68370600 -0.91944900
H -3.08153000 -0.13075600 0.31956600
Pd -2.84399100 -3.38963300 -1.90443900
H -2.55354700 -0.25663900 -1.36966500
H -1.68184500 -2.28192400 -0.11476100