9

C -3.15154600 -2.16781100 -0.32699300
C -3.31245000 -0.68781600 -0.61996800
H -3.86642800 -2.55578500 0.40150700
I -3.57603600 -3.45620500 -2.13882400
H -4.33708600 -0.43996000 -0.91663500
H -3.07361100 -0.11446400 0.28903100
H -2.13496100 -2.45577400 -0.05850300
H -2.63367400 -0.36255700 -1.41562000
Pd -2.10215200 -2.61980600 -4.02961700
