9

C -2.89469700 -2.12331300 -0.37806500
C -3.08889000 -0.63232500 -0.57483400
H -3.61580500 -2.57343000 0.30744100
I -5.37029200 -3.78381700 -2.28792400
H -4.11934800 -0.39197400 -0.85383500
H -2.87210300 -0.11475300 0.37672400
Pd -2.90173400 -3.13819300 -2.12538700
H -2.41118900 -0.21031000 -1.32649600
H -1.86466100 -2.41257400 -0.09701900