8
TS1
N 1.7969897656 -0.6066246971 -0.1391603777
N 0.0216100282 1.2290908198 0.2854039033
O 0.4893111044 -0.4202399498 -0.2680031040
O 2.1859046835 -1.7204866019 -0.4369015961
O -0.0206177091 1.2292264576 1.4513771074
O 0.1877659087 1.9739726297 -0.5977960249
O 2.4955903377 0.3156643303 0.2494699587
Cl -2.4413626456 0.5351624567 -0.2093041640
