8
CH2NH-H2O
C -1.25287800 -0.56100700 0.02006900 
H -2.29015400 -0.89421300 -0.02315300 
H -0.47861700 -1.32268900 0.07987300 
N -0.90210100 0.65073100 0.00389800
H -1.69982300 1.28064600 -0.05584700 
H 1.05442400 0.43647600 -0.03364900 
O 1.84392400 -0.12431000 -0.07451100 
H 2.49475100 0.30519200 0.48116300
