11
CH2O-NH3-H2O
C -0.58315427 -1.24592061 0.42316867 
H -0.35971045 -0.69287744 1.34439000 
O -1.25791583 -0.76991882 -0.45190607 
H -0.18256300 -2.26540001 0.34797628
N 1.85949905 -0.24615528 -0.08983096 
H 2.77319922 -0.16141329 0.33794934 
H 2.00792497 -0.44683146 -1.07155607 
H 1.40656449 0.66311418 -0.03797597
O -0.40787099 1.81553700 0.14221408 
H -0.96498088 1.09537058 -0.18868036 
H -0.83573032 2.63038316 -0.12209195