11
H2O-CH2NH-H2O
C -1.52975900 -0.87189400 0.03746700 
H -2.38175400 -1.55242300 0.04421700 
O 1.73125600 -1.14756800 0.06775700 
H -0.53170900 -1.30147200 0.09658900 
N -1.65196400 0.38359800 -0.04025500 
H -0.02987700 1.28176900 -0.06966800 
H -2.62566400 0.67544900 -0.09585900 
H 1.06776200 2.03595100 0.71490100 
O 0.92091100 1.51668700 -0.07709700 
H 2.42768000 -1.35935200 -0.55449800 
H 1.59852600 -0.18669000 -0.00398000
