11
NH2CH2OH-1-H2O
C -1.08263500 -0.10839200 0.42958500 
H -2.15221400 -0.31885800 0.43291000 
O -0.39086500 -1.20014200 -0.19757300 
H -0.71693400 -0.11558800 1.45299600 
N -0.85817500 1.17900000 -0.13829000
H 0.12897500 1.40764800 -0.15956500 
H -1.25066000 1.27554100 -1.06464500 
H 2.78672900 -0.15168800 0.44924200 
O 2.02089400 0.21426500 0.00565000 
H -0.71982300 -1.30195900 -1.09398200 
H 1.38673600 -0.51073000 -0.09105200
