11
TS2-H2O
C 1.35620600 -0.18403200 -0.06248600 
H 2.04935900 -0.33617600 0.77149800 
O 0.33409400 -1.15354100 -0.02398300 
H 1.89449000 -0.37256700 -0.99018000 
N 0.80125500 1.16432300 -0.07620800
H -0.13950700 1.16353800 0.30320400 
H 1.36199000 1.80033300 0.47421300 
H -2.84207100 0.44783200 -0.49342200 
O -2.14750300 0.12468800 0.08219500 
H -0.04111900 -1.17530600 0.86125000 
H -1.52188600 -0.34289900 -0.48388900
