11
TS3-H2O
C 1.05290200 -0.32965200 0.28431900 
H 1.00644200 -0.26125000 1.38279800 
O 0.23480200 -1.20771200 -0.27444200 
H 2.09865400 -0.41804000 -0.03024900 
N 0.59063000 1.10672200 -0.15705800 
H 0.98096600 1.85923800 0.40079700 
H 0.81970200 1.24709200 -1.13614300 
H -0.51421500 0.98965200 -0.05009600 
O -1.67609200 0.13436600 0.18684800 
H -0.89494500 -0.70142400 -0.05593800 
H -2.41810700 0.10235700 -0.41692900
